Final_Project_Layout
*SPICE Netlist generated by Advanced Sim server on 11/8/2014 2:18:03 PM

*Schematic Netlist:


*Selected Circuit Analyses:
.TRAN 2E-8 5E-6 0 2E-8
.OP

.END
